Version 4
SHEET 1 1376 1204
WIRE 288 176 288 96
WIRE 160 256 160 192
WIRE 240 256 160 256
WIRE 96 304 32 304
WIRE 288 352 288 272
WIRE 288 352 160 352
WIRE 288 416 288 352
WIRE 1088 496 1088 448
WIRE -64 544 -64 528
WIRE -48 544 -64 544
WIRE -48 576 -48 544
WIRE 272 608 272 528
WIRE 672 608 592 608
WIRE 960 608 960 448
WIRE 960 608 864 608
WIRE 512 656 496 656
WIRE 592 656 592 608
WIRE 1088 656 1088 576
WIRE -48 672 -48 656
WIRE 96 672 -48 672
WIRE -48 688 -48 672
WIRE 272 704 272 688
WIRE 672 704 624 704
WIRE 928 704 864 704
WIRE 1024 704 1008 704
WIRE 96 752 96 672
WIRE 208 752 96 752
WIRE 208 784 208 752
WIRE 224 784 208 784
WIRE 96 800 96 752
WIRE 96 800 -48 800
WIRE 624 800 624 704
WIRE -48 816 -48 800
WIRE 1088 912 1088 752
WIRE -48 928 -48 896
WIRE -224 976 -240 976
WIRE -112 976 -144 976
WIRE -48 1088 -48 1024
WIRE 272 1088 272 800
WIRE 272 1088 -48 1088
WIRE -48 1184 -48 1088
FLAG 288 416 0
FLAG -368 192 0
FLAG -464 192 0
FLAG -464 112 VCC
FLAG -368 112 Sig
FLAG -48 1184 0
FLAG -48 768 0
FLAG 496 656 Sig
FLAG 624 800 0
FLAG 960 448 VCC
FLAG 1088 448 VCC
FLAG 1088 912 0
SYMBOL nmos 240 176 R0
SYMATTR InstName M1
SYMATTR Value IRFH5302
SYMBOL res 272 0 R0
SYMATTR InstName R1
SYMATTR Value 120
SYMBOL npn 96 256 R0
SYMATTR InstName Q1
SYMATTR Value BC547C
SYMBOL res -64 320 R270
WINDOW 0 32 56 VTop 2
WINDOW 3 0 56 VBottom 2
SYMATTR InstName R2
SYMATTR Value 5100
SYMBOL res 144 96 R0
SYMATTR InstName R3
SYMATTR Value 1950
SYMBOL voltage -464 96 R0
WINDOW 123 0 0 Left 0
WINDOW 39 0 0 Left 0
SYMATTR InstName V1
SYMATTR Value 24
SYMBOL voltage -368 96 R0
WINDOW 123 0 0 Left 0
WINDOW 39 24 124 Left 2
SYMATTR SpiceLine Rser=250
SYMATTR InstName V2
SYMATTR Value PULSE(0 5 1m 1n 1n 500u 1m 5)
SYMBOL npn -112 928 R0
SYMATTR InstName Q2
SYMATTR Value BC547C
SYMBOL res -64 800 R0
SYMATTR InstName R4
SYMATTR Value 120
SYMBOL res -240 992 R270
WINDOW 0 32 56 VTop 2
WINDOW 3 0 56 VBottom 2
SYMATTR InstName R5
SYMATTR Value 5600
SYMBOL res -64 672 R0
SYMATTR InstName R6
SYMATTR Value 2400
SYMBOL res -64 560 R0
SYMATTR InstName R7
SYMATTR Value 9600
SYMBOL res 256 592 R0
SYMATTR InstName R8
SYMATTR Value 120
SYMBOL nmos 224 704 R0
SYMATTR InstName M2
SYMATTR Value IRFH5302
SYMBOL Optos\\PC817C 768 656 R0
SYMATTR InstName U1
SYMBOL res 496 672 R270
WINDOW 0 32 56 VTop 2
WINDOW 3 0 56 VBottom 2
SYMATTR InstName R9
SYMATTR Value 5600
SYMBOL npn 1024 656 R0
SYMATTR InstName Q3
SYMATTR Value BC547C
SYMBOL res 1072 480 R0
SYMATTR InstName R10
SYMATTR Value 120
SYMBOL res 912 720 R270
WINDOW 0 32 56 VTop 2
WINDOW 3 0 56 VBottom 2
SYMATTR InstName R11
SYMATTR Value 1000
TEXT -496 440 Left 2 !.tran 8m
TEXT -368 448 Left 2 ;kein sinn, wir wollen ein  pwm output haben der grosser als uC output ist
TEXT 648 352 Left 2 ;wird wieder nicht schalten weil vcc immer noch uber 5v steht?
